ChatGPT Teams: GPU Performance Modeling and Simulation Tools

As of my last update in April 2023, there are several software-based modeling tools available for simulating and prototyping GPU performance and general hardware design. These tools vary in their capabilities, ranging from detailed physical simulations to more abstract performance modeling. Some are specifically tailored for GPU and hardware design, while others are more general-purpose simulation environments. Here are a few notable examples:

1. **ANSYS**: ANSYS offers a wide range of simulation tools that can be used for thermal, structural, and fluid dynamics analysis, which are critical for GPU hardware design and optimization. While not GPU-specific, ANSYS tools can model the physical conditions that affect GPU performance.

2. **Cadence Design Systems**: Cadence provides a comprehensive suite of design and simulation tools that cater to various aspects of semiconductor and system design, including GPUs. Their tools support electronic design automation (EDA), including circuit simulation, thermal analysis, and more.

3. **Synopsys**: Similar to Cadence, Synopsys offers a range of software tools for semiconductor design and verification. Their tools cover everything from electronic design automation (EDA) to more specific aspects like power analysis and optimization, which are essential for efficient GPU design.

4. **MATLAB/Simulink**: MATLAB, with its Simulink extension, is a powerful tool for modeling and simulating complex systems. While not specifically designed for GPU hardware, it can be used to simulate the performance of GPU-based systems and algorithms, especially for applications in signal processing, machine learning, and control systems.

5. **Nsight Systems and Nsight Compute by NVIDIA**: These are performance analysis tools designed specifically for developers working with NVIDIA GPUs. They provide detailed insights into the performance characteristics of GPU applications, helping developers optimize their code for NVIDIA's architecture.

6. **GPU Simulators**: There are academic and research-oriented GPU simulators like GPGPU-Sim, which simulate the performance of CUDA or OpenCL applications on various GPU architectures. These tools are useful for theoretical research and educational purposes, providing insights into how different algorithms perform on GPUs.

7. **Intel Graphics Performance Analyzers (Intel GPA)**: This suite of tools is designed to help optimize games, media, and other graphics-intensive applications for Intel architecture. While focused on Intel GPUs, it provides valuable insights into graphics performance optimization.

8. **Open-Source Tools**: There are also various open-source projects and tools available on platforms like GitHub, which are developed for specific needs or research purposes. These can range from detailed simulators for specific GPU architectures to more general performance analysis tools.

The choice of tool depends on the specific needs of the project, including the level of detail required, the specific GPU architecture being targeted, and the type of performance metrics that need to be evaluated. It's also common to use a combination of these tools to achieve comprehensive analysis and optimization of GPU performance.
